contingency_data_gen/configs/networks/matpower_two_substations.m
function mpc = matpower_two_substations
%Please see CASEFORMAT for details on the case file format.
% MATPOWER Case Format : Version 2
mpc.version = '2';
%-----  Power Flow Data  -----%%
% system MVA base
mpc.baseMVA = 1;
% bus data
%bus_i type Pd	Qd Gs Bs area Vm Va baseKV zone	Vmax Vmin
mpc.bus = [
1	1	0	0	0	0	1	1	0	20	1	1.1	0.9
2	1	0.63	0.189	0	0	1	1	0	20	1	1.1	0.9
3	1	0.4	0.12	0	0	1	1	0	20	1	1.1	0.9
4	1	1	0.3	0	0	1	1	0	20	1	1.1	0.9
5	1	0.63	0.189	0	0	1	1	0	20	1	1.1	0.9
6	1	0.63	0.189	0	0	1	1	0	20	1	1.1	0.9
7	1	0.63	0.189	0	0	1	1	0	20	1	1.1	0.9
8	1	0.63	0.189	0	0	1	1	0	20	1	1.1	0.9
9	1	0.63	0.189	0	0	1	1	0	20	1	1.1	0.9
10	1	0.4	0.12	0	0	1	1	0	20	1	1.1	0.9
11	1	1	0.3	0	0	1	1	0	20	1	1.1	0.9
12	1	0.63	0.189	0	0	1	1	0	20	1	1.1	0.9
13	1	0.63	0.189	0	0	1	1	0	20	1	1.1	0.9
14	1	0.63	0.189	0	0	1	1	0	20	1	1.1	0.9
15	1	0.4	0.12	0	0	1	1	0	20	1	1.1	0.9
16	1	0.63	0.189	0	0	1	1	0	20	1	1.1	0.9
17	1	0.63	0.189	0	0	1	1	0	20	1	1.1	0.9
18	1	0.63	0.189	0	0	1	1	0	20	1	1.1	0.9
19	1	0.4	0.12	0	0	1	1	0	20	1	1.1	0.9
20	1	0.63	0.189	0	0	1	1	0	20	1	1.1	0.9
21	1	0.4	0.12	0	0	1	1	0	20	1	1.1	0.9
22	1	1	0.3	0	0	1	1	0	20	1	1.1	0.9
23	1	0.63	0.189	0	0	1	1	0	20	1	1.1	0.9
24	1	0.63	0.189	0	0	1	1	0	20	1	1.1	0.9
25	1	0	0	0	0	1	1	0	20	1	1.1	0.9
26	1	0.63	0.189	0	0	1	1	0	20	1	1.1	0.9
27	1	0.63	0.189	0	0	1	1	0	20	1	1.1	0.9
28	1	0.4	0.12	0	0	1	1	0	20	1	1.1	0.9
29	1	1	0.3	0	0	1	1	0	20	1	1.1	0.9
30	1	0.63	0.189	0	0	1	1	0	20	1	1.1	0.9
31	1	0.63	0.189	0	0	1	1	0	20	1	1.1	0.9
32	1	0.4	0.12	0	0	1	1	0	20	1	1.1	0.9
33	1	0.63	0.189	0	0	1	1	0	20	1	1.1	0.9
34	1	0.63	0.189	0	0	1	1	0	20	1	1.1	0.9
35	1	0.63	0.189	0	0	1	1	0	20	1	1.1	0.9
36	1	0.63	0.189	0	0	1	1	0	20	1	1.1	0.9
37	1	0.4	0.12	0	0	1	1	0	20	1	1.1	0.9
38	1	1	0.3	0	0	1	1	0	20	1	1.1	0.9
39	1	0.63	0.189	0	0	1	1	0	20	1	1.1	0.9
40	1	0.4	0.12	0	0	1	1	0	20	1	1.1	0.9
41	1	0.63	0.189	0	0	1	1	0	20	1	1.1	0.9
42	1	0.63	0.189	0	0	1	1	0	20	1	1.1	0.9
43	1	0.4	0.12	0	0	1	1	0	20	1	1.1	0.9
44	1	0.63	0.189	0	0	1	1	0	20	1	1.1	0.9
45	1	0.4	0.12	0	0	1	1	0	20	1	1.1	0.9
46	1	1	0.3	0	0	1	1	0	20	1	1.1	0.9
47	1	0.63	0.189	0	0	1	1	0	20	1	1.1	0.9
48	1	0.63	0.189	0	0	1	1	0	20	1	1.1	0.9
49	3	0	0	0	0	1	1	0	132	1	1.1	0.9

];
%% generator data
% bus Pg Qg Qmax Qmin Vg mBase status Pmax Pmin Pc1 Pc2 Qc1min Qc1max Qc2min Qc2max ramp_agc ramp_10 ramp_30 ramp_q apf
mpc.gen = [
49 0 0 1000 -1000 1.0 1 1 1000 0 0 0 0 0 0 0 0 0 0 0 0];
%% branch data
%fbus tbus	r x b rA rB rC rat ang status angmin angmax
mpc.branch = [
1	2	1.69E-04	8.87E-05	0	10.3923	10.3923	10.3923	0	0	1	-360	360
2	3	1.73E-04	9.04E-05	0	10.3923	10.3923	10.3923	0	0	1	-360	360
3	4	1.81E-04	9.47E-05	0	10.3923	10.3923	10.3923	0	0	1	-360	360
4	5	1.83E-04	9.59E-05	0	10.3923	10.3923	10.3923	0	0	1	-360	360
5	6	2.10E-04	1.10E-04	0	10.3923	10.3923	10.3923	0	0	1	-360	360
6	7	8.42E-05	4.41E-05	0	10.3923	10.3923	10.3923	0	0	1	-360	360
7	8	2.19E-04	1.15E-04	0	10.3923	10.3923	10.3923	0	0	1	-360	360
8	9	1.82E-04	9.55E-05	0	10.3923	10.3923	10.3923	0	0	1	-360	360
9	10	2.22E-04	1.16E-04	0	10.3923	10.3923	10.3923	0	0	1	-360	360
10	11	1.74E-04	9.10E-05	0	10.3923	10.3923	10.3923	0	0	1	-360	360
11	12	1.70E-04	8.92E-05	0	10.3923	10.3923	10.3923	0	0	1	-360	360
12	13	8.44E-05	4.42E-05	0	10.3923	10.3923	10.3923	0	0	1	-360	360
13	14	1.72E-04	9.03E-05	0	10.3923	10.3923	10.3923	0	0	1	-360	360
1	15	1.68E-04	8.83E-05	0	10.3923	10.3923	10.3923	0	0	1	-360	360
15	16	2.02E-04	1.06E-04	0	10.3923	10.3923	10.3923	0	0	1	-360	360
16	17	1.97E-04	1.03E-04	0	10.3923	10.3923	10.3923	0	0	1	-360	360
17	18	2.28E-04	1.20E-04	0	10.3923	10.3923	10.3923	0	0	1	-360	360
18	19	1.74E-04	9.14E-05	0	10.3923	10.3923	10.3923	0	0	1	-360	360
19	20	2.00E-04	1.05E-04	0	10.3923	10.3923	10.3923	0	0	1	-360	360
20	21	2.07E-04	1.08E-04	0	10.3923	10.3923	10.3923	0	0	1	-360	360
21	22	2.75E-04	1.44E-04	0	10.3923	10.3923	10.3923	0	0	1	-360	360
22	23	2.57E-04	1.34E-04	0	10.3923	10.3923	10.3923	0	0	1	-360	360
23	24	1.96E-04	1.03E-04	0	10.3923	10.3923	10.3923	0	0	1	-360	360
25	26	2.52E-04	1.32E-04	0	10.3923	10.3923	10.3923	0	0	1	-360	360
26	27	1.88E-04	9.83E-05	0	10.3923	10.3923	10.3923	0	0	1	-360	360
27	28	1.82E-04	9.55E-05	0	10.3923	10.3923	10.3923	0	0	1	-360	360
28	29	1.63E-04	8.53E-05	0	10.3923	10.3923	10.3923	0	0	1	-360	360
29	30	1.55E-04	8.14E-05	0	10.3923	10.3923	10.3923	0	0	1	-360	360
30	31	2.12E-04	1.11E-04	0	10.3923	10.3923	10.3923	0	0	1	-360	360
31	32	1.28E-04	6.72E-05	0	10.3923	10.3923	10.3923	0	0	1	-360	360
32	33	1.84E-04	9.61E-05	0	10.3923	10.3923	10.3923	0	0	1	-360	360
33	34	2.06E-04	1.08E-04	0	10.3923	10.3923	10.3923	0	0	1	-360	360
34	35	1.52E-04	7.98E-05	0	10.3923	10.3923	10.3923	0	0	1	-360	360
35	36	2.06E-04	1.08E-04	0	10.3923	10.3923	10.3923	0	0	1	-360	360
36	37	3.33E-04	1.75E-04	0	10.3923	10.3923	10.3923	0	0	1	-360	360
25	38	2.58E-04	1.35E-04	0	10.3923	10.3923	10.3923	0	0	1	-360	360
38	39	1.76E-04	9.22E-05	0	10.3923	10.3923	10.3923	0	0	1	-360	360
39	40	2.02E-04	1.06E-04	0	10.3923	10.3923	10.3923	0	0	1	-360	360
40	41	5.41E-05	2.83E-05	0	10.3923	10.3923	10.3923	0	0	1	-360	360
41	42	1.56E-04	8.19E-05	0	10.3923	10.3923	10.3923	0	0	1	-360	360
42	43	2.27E-04	1.19E-04	0	10.3923	10.3923	10.3923	0	0	1	-360	360
43	44	1.78E-04	9.30E-05	0	10.3923	10.3923	10.3923	0	0	1	-360	360
44	45	2.64E-04	1.38E-04	0	10.3923	10.3923	10.3923	0	0	1	-360	360
45	46	1.40E-04	7.35E-05	0	10.3923	10.3923	10.3923	0	0	1	-360	360
46	47	1.74E-04	9.12E-05	0	10.3923	10.3923	10.3923	0	0	1	-360	360
47	48	2.19E-04	1.15E-04	0	10.3923	10.3923	10.3923	0	0	1	-360	360
14	37	8.90E-05	4.66E-05	0	10.3923	10.3923	10.3923	0	0	0	-360	360
24	48	2.11E-04	1.10E-04	0	10.3923	10.3923	10.3923	0	0	0	-360	360
49	1	3.75E-05	0.00125	0	80	80	80	1	0	1	-360	360
49	25	3.75E-05	0.00125	0	80	80	80	1	0	1	-360	360
];
